18

C      0.00000000      0.00000000     -0.71817600
C      0.00000000     -0.00000000      0.71817600
C     -1.24721700      0.00000000     -1.40458900
C     -1.24721700     -0.00000000      1.40458900
C     -2.43820700     -0.00000000      0.70931400
H     -3.38829700     -0.00000000      1.24972900
C     -2.43820700      0.00000000     -0.70931400
H     -3.38829700      0.00000000     -1.24972900
H     -1.24548400      0.00000000     -2.49824300
H     -1.24548400     -0.00000000      2.49824300
C      1.24721700      0.00000000     -1.40458900
C      1.24721700     -0.00000000      1.40458900
C      2.43820700     -0.00000000      0.70931400
H      3.38829700     -0.00000000      1.24972900
C      2.43820700      0.00000000     -0.70931400
H      3.38829700      0.00000000     -1.24972900
H      1.24548400      0.00000000     -2.49824300
H      1.24548400     -0.00000000      2.49824300