18
    
  C    0.1150653    0.8404773   -0.1016569
  C    0.0519898   -0.5878690   -0.1089063
  C   -1.0996267    1.5368308    0.2516501
  C   -1.1533552   -1.2273111    0.3628988
  C   -2.3733439   -0.5764483    0.0039237
  C   -2.3139533    0.8785769   -0.0836763
  C    1.3938497    1.4450883   -0.4331363
  C    1.1955719   -1.2942976   -0.6561299
  C    2.4619660   -0.7775063   -0.3107589
  C    2.5452011    0.6794879   -0.1151941
  H   -1.0868378    2.4567078    0.7192897
  H   -1.1349108   -2.0950651    0.9211879
  H   -3.2417198   -1.1022779   -0.1816846
  H   -3.1392883    1.4205285   -0.3839007
  H    1.4607331    2.3759665   -0.8736093
  H    1.0888812   -2.1237702   -1.2607920
  H    3.2864820   -1.3883621   -0.2009748
  H    3.4058965    1.1255678    0.2386988

  C    0.1150654    0.8404773   -0.1016571
  C    0.0519895   -0.5878688   -0.1089063
  C   -1.0863554    1.5771294    0.0995873
  C   -1.1942881   -1.2164073   -0.0316866
  C   -2.3733439   -0.5764481    0.0039238
  C   -2.3139533    0.8785770   -0.0836761
  C    1.3898092    1.3728724   -0.1731317
  C    1.2134318   -1.3019367   -0.3755058
  C    2.4619658   -0.7775063   -0.3107588
  C    2.5452011    0.6794879   -0.1151939
  H   -1.0685904    2.5738262    0.3666152
  H   -1.2086892   -2.2478120    0.0002668
  H   -3.2683858   -1.0832201    0.0882222
  H   -3.1758004    1.4105698   -0.2817349
  H    1.4636789    2.3965697   -0.2808869
  H    1.1198533   -2.2951359   -0.6397450
  H    3.3057549   -1.3658507   -0.3937935
  H    3.4475180    1.1492557    0.0584910